dss_grid_VLL_Node.Txt

LINE-LINE VOLTAGES BY BUS & NODE

Bus               Node    VLN (kV)   Angle      pu     Base kV 

SOURCEBUS ....... 1-2     19.998 /_   30.0         0     0.000
   -              2-3     19.998 /_  -90.0         0     0.000
   -              3-1     19.998 /_  150.0         0     0.000
UG_BB_20KV ...... 1-2     19.981 /_   30.0         0     0.000
   -              2-3     19.981 /_  -90.0         0     0.000
   -              3-1     19.981 /_  150.0         0     0.000
UG_BB_2KV ....... 1-2     1.9902 /_   -0.5         0     0.000
   -              2-3     1.9902 /_ -120.5         0     0.000
   -              3-1     1.9902 /_  119.5         0     0.000
UG_SERV_BB ...... 1-2    0.38949 /_  -32.1         0     0.000
   -              2-3    0.38949 /_ -152.1         0     0.000
   -              3-1    0.38949 /_   87.9         0     0.000
UG_BB_LVDC ...... 1-2     1.4927 /_  -30.5         0     0.000
   -              2-3     1.4927 /_ -150.5         0     0.000
   -              3-1     1.4927 /_   89.5         0     0.000
UGS_BB .......... 1-2     1.4927 /_  -30.5         0     0.000
   -              2-3     1.4927 /_ -150.5         0     0.000
   -              3-1     1.4927 /_   89.5         0     0.000
UGS_PV_BB ....... 1-2     5.7219 /_   -0.5         0     0.000
   -              2-3     5.7219 /_ -120.5         0     0.000
   -              3-1     5.7219 /_  119.5         0     0.000
RS_BB_20KV ...... 1-2     19.991 /_   30.0         0     0.000
   -              2-3     19.991 /_  -90.0         0     0.000
   -              3-1     19.991 /_  150.0         0     0.000
RS_BB_04KV ...... 1-2    0.39094 /_   -1.8         0     0.000
   -              2-3    0.39094 /_ -121.8         0     0.000
   -              3-1    0.39094 /_  118.2         0     0.000
EV-CHARGE_BB .... 1-2    0.39031 /_   -1.8         0     0.000
   -              2-3    0.39031 /_ -121.8         0     0.000
   -              3-1    0.39031 /_  118.2         0     0.000
EV-FAST_BB ...... 1-2    0.58641 /_   28.2         0     0.000
   -              2-3    0.58641 /_  -91.8         0     0.000
   -              3-1    0.58641 /_  148.2         0     0.000
EV-FAST_LOAD_NODE 1-2    0.39094 /_   -1.8         0     0.000
   -              2-3    0.39094 /_ -121.8         0     0.000
   -              3-1    0.39094 /_  118.2         0     0.000
RES-WPG_BB ...... 1-2     19.991 /_   30.0         0     0.000
   -              2-3     19.991 /_  -90.0         0     0.000
   -              3-1     19.991 /_  150.0         0     0.000
RES_BB .......... 1-2    0.39256 /_   -1.6         0     0.000
   -              2-3    0.39256 /_ -121.6         0     0.000
   -              3-1    0.39256 /_  118.4         0     0.000
USER_BB ......... 1-2    0.38362 /_   -1.9         0     0.000
   -              2-3    0.38362 /_ -121.9         0     0.000
   -              3-1    0.38362 /_  118.1         0     0.000
PROS_BB ......... 1-2    0.39064 /_   -1.8         0     0.000
   -              2-3    0.39064 /_ -121.8         0     0.000
   -              3-1    0.39064 /_  118.2         0     0.000
PROS_BB_DC1 ..... 1-2    0.58596 /_   28.2         0     0.000
   -              2-3    0.58596 /_  -91.8         0     0.000
   -              3-1    0.58596 /_  148.2         0     0.000
PROS_BB_DC2 ..... 1-2    0.58596 /_   28.2         0     0.000
   -              2-3    0.58596 /_  -91.8         0     0.000
   -              3-1    0.58596 /_  148.2         0     0.000
WPG_BB1 ......... 1-2     2.0099 /_    0.3         0     0.000
   -              2-3     2.0099 /_ -119.7         0     0.000
   -              3-1     2.0099 /_  120.3         0     0.000
WPG_BB2 ......... 1-2     2.0295 /_    0.6         0     0.000
   -              2-3     2.0295 /_ -119.4         0     0.000
   -              3-1     2.0295 /_  120.6         0     0.000
WPG_PV_BB ....... 1-2    0.60298 /_  -29.7         0     0.000
   -              2-3    0.60298 /_ -149.7         0     0.000
   -              3-1    0.60298 /_   90.3         0     0.000
